Version 4
SHEET 1 1380 880
WIRE -832 -224 -928 -224
WIRE -704 -224 -752 -224
WIRE -368 -224 -704 -224
WIRE -928 -208 -928 -224
WIRE -704 -192 -704 -224
WIRE 784 -160 128 -160
WIRE -544 -128 -704 -128
WIRE -368 -64 -368 -224
WIRE -368 -64 -384 -64
WIRE 128 -64 128 -160
WIRE 128 -64 -368 -64
WIRE 144 -64 128 -64
WIRE -384 -48 -384 -64
WIRE -384 -48 -912 -48
WIRE -912 -32 -912 -48
WIRE -384 -32 -384 -48
WIRE 784 -32 784 -80
WIRE 864 -32 784 -32
WIRE 992 -32 928 -32
WIRE 784 16 784 -32
WIRE 992 16 992 -32
WIRE 144 64 144 16
WIRE 224 64 144 64
WIRE 352 64 288 64
WIRE 592 64 432 64
WIRE 736 64 592 64
WIRE -912 96 -912 48
WIRE -832 96 -912 96
WIRE -736 96 -768 96
WIRE -384 96 -384 48
WIRE -304 96 -384 96
WIRE -208 96 -240 96
WIRE 592 96 592 64
WIRE 608 96 592 96
WIRE -208 112 -208 96
WIRE -80 112 -128 112
WIRE 144 112 144 64
WIRE 928 128 800 128
WIRE -912 144 -912 96
WIRE -384 144 -384 96
WIRE -80 160 -80 112
WIRE 96 160 -80 160
WIRE -768 176 -768 96
WIRE -768 176 -800 176
WIRE -80 176 -80 160
WIRE -1168 192 -1248 192
WIRE -1120 192 -1168 192
WIRE -960 192 -1120 192
WIRE -432 192 -640 192
WIRE 768 192 768 128
WIRE 848 192 768 192
WIRE -736 208 -736 176
WIRE -688 208 -736 208
WIRE -640 208 -640 192
WIRE -640 208 -688 208
WIRE -800 224 -800 176
WIRE -208 224 -208 112
WIRE 288 224 160 224
WIRE 752 240 752 112
WIRE 752 240 736 240
WIRE 784 240 752 240
WIRE -832 256 -896 256
WIRE -688 256 -688 208
WIRE -304 256 -368 256
WIRE 736 256 736 240
WIRE 784 256 784 240
WIRE 288 272 288 224
WIRE 848 272 848 192
WIRE 848 272 288 272
WIRE -80 288 -80 256
WIRE -32 288 -80 288
WIRE 128 288 128 224
WIRE 224 288 128 288
WIRE -928 304 -928 256
WIRE -864 304 -928 304
WIRE -400 304 -400 256
WIRE -336 304 -400 304
WIRE -1232 320 -1248 320
WIRE -1120 320 -1120 192
WIRE 112 336 112 208
WIRE 112 336 96 336
WIRE 352 336 352 64
WIRE 96 352 96 336
WIRE 736 352 736 336
WIRE 784 352 784 320
WIRE 784 352 736 352
WIRE -944 384 -944 240
WIRE -944 384 -976 384
WIRE -896 384 -944 384
WIRE -832 384 -832 256
WIRE -608 384 -832 384
WIRE -416 384 -416 240
WIRE -416 384 -448 384
WIRE -368 384 -416 384
WIRE -304 384 -304 256
WIRE -80 384 -304 384
WIRE -1168 400 -1168 192
WIRE -1168 400 -1248 400
WIRE -896 400 -896 384
WIRE -368 400 -368 384
WIRE 96 448 96 432
WIRE 144 448 96 448
WIRE -976 480 -976 464
WIRE -944 480 -976 480
WIRE -896 480 -896 464
WIRE -896 480 -944 480
WIRE -448 480 -448 464
WIRE -400 480 -448 480
WIRE -368 480 -368 464
WIRE -368 480 -400 480
WIRE -400 512 -400 480
WIRE -400 512 -512 512
WIRE -336 512 -336 304
WIRE -336 512 -400 512
WIRE -208 512 -208 304
WIRE -208 512 -336 512
WIRE -32 512 -32 288
WIRE -32 512 -208 512
WIRE 144 512 144 448
WIRE 144 512 -32 512
WIRE 224 512 224 288
WIRE 224 512 144 512
WIRE 256 512 224 512
WIRE 352 512 352 416
WIRE 352 512 256 512
WIRE 608 512 608 176
WIRE 608 512 352 512
WIRE 736 512 608 512
WIRE 784 512 784 352
WIRE 784 512 736 512
WIRE 928 512 928 128
WIRE 928 512 784 512
WIRE 992 512 992 96
WIRE 992 512 928 512
WIRE -1248 528 -1248 480
WIRE -1120 528 -1120 400
WIRE -1120 528 -1248 528
WIRE -944 528 -944 480
WIRE -944 528 -1120 528
WIRE -864 528 -864 304
WIRE -864 528 -944 528
WIRE -800 528 -800 304
WIRE -800 528 -864 528
WIRE -688 528 -688 336
WIRE -688 528 -800 528
WIRE -512 528 -512 512
WIRE -512 528 -688 528
WIRE -944 544 -944 528
WIRE 736 544 736 512
WIRE -80 560 -80 384
WIRE -80 560 -112 560
WIRE 192 560 -80 560
WIRE 288 560 288 272
WIRE 288 560 192 560
WIRE -608 576 -608 384
WIRE -112 576 -112 560
WIRE -112 576 -608 576
WIRE 256 640 256 512
WIRE 256 640 192 640
FLAG 736 544 0
FLAG -928 -128 0
FLAG -544 -128 0
SYMBOL voltage -1248 384 R0
WINDOW 0 -75 39 Left 2
WINDOW 3 -244 125 Left 2
WINDOW 123 0 0 Left 2
WINDOW 39 0 0 Left 2
SYMATTR InstName V2
SYMATTR Value SINE(0 0.1 87)
SYMBOL res -992 368 R0
SYMATTR InstName R4
SYMATTR Value 1k
SYMBOL cap -912 400 R0
SYMATTR InstName C2
SYMATTR Value 22µ
SYMBOL cap -768 80 R90
WINDOW 0 0 32 VBottom 2
WINDOW 3 32 32 VTop 2
SYMATTR InstName C3
SYMATTR Value 22n
SYMBOL res -1136 304 R0
SYMATTR InstName R1
SYMATTR Value 1000K
SYMBOL res -928 -48 R0
SYMATTR InstName R5
SYMATTR Value 100k
SYMBOL res 80 336 R0
SYMATTR InstName 1k
SYMATTR Value 3.3k
SYMBOL cap 288 48 R90
WINDOW 0 0 32 VBottom 2
WINDOW 3 32 32 VTop 2
SYMATTR InstName C5
SYMATTR Value 22n
SYMBOL res 128 -80 R0
SYMATTR InstName R7
SYMATTR Value 220k
SYMBOL voltage -928 -224 R0
WINDOW 0 -75 39 Left 2
WINDOW 3 -201 67 Left 2
WINDOW 123 0 0 Left 2
WINDOW 39 0 0 Left 2
SYMATTR InstName V1
SYMATTR Value 300
SYMBOL res -736 -240 R90
WINDOW 0 0 56 VBottom 2
WINDOW 3 32 56 VTop 2
SYMATTR InstName R11
SYMATTR Value 680
SYMBOL res 336 320 R0
WINDOW 3 45 81 Left 2
SYMATTR Value 100k
SYMATTR InstName R16
SYMBOL Misc\\triodeh -912 192 R0
SYMATTR InstName U2
SYMATTR Value 12ax7
SYMBOL Misc\\triodeh 144 160 R0
SYMATTR InstName U3
SYMATTR Value 12ax7
SYMBOL voltage 192 544 R0
WINDOW 0 -75 39 Left 2
WINDOW 3 -201 67 Left 2
WINDOW 123 0 0 Left 2
WINDOW 39 0 0 Left 2
SYMATTR InstName V3
SYMATTR Value SINE(0 8.92 50)
SYMBOL cap -720 -192 R0
SYMATTR InstName C1
SYMATTR Value 47µ
SYMBOL res 720 240 R0
SYMATTR InstName R12
SYMATTR Value 1.5k
SYMBOL cap 928 -48 R90
WINDOW 0 0 32 VBottom 2
WINDOW 3 32 32 VTop 2
SYMATTR InstName C8
SYMATTR Value 47n
SYMBOL res 768 -176 R0
SYMATTR InstName R13
SYMATTR Value 100k
SYMBOL res 976 0 R0
SYMATTR InstName R14
SYMATTR Value 500k
SYMBOL Misc\\triodeh 784 64 R0
SYMATTR InstName U1
SYMATTR Value 12ax7
SYMBOL voltage -1232 224 R0
WINDOW 0 -75 39 Left 2
WINDOW 3 -244 125 Left 2
WINDOW 123 0 0 Left 2
WINDOW 39 0 0 Left 2
SYMATTR InstName V4
SYMATTR Value SINE(0 0.05 1200)
SYMBOL res -464 368 R0
SYMATTR InstName R2
SYMATTR Value 1.5k
SYMBOL cap -384 400 R0
SYMATTR InstName C6
SYMATTR Value 22µ
SYMBOL cap -240 80 R90
WINDOW 0 0 32 VBottom 2
WINDOW 3 32 32 VTop 2
SYMATTR InstName C9
SYMATTR Value 22n
SYMBOL res -400 -48 R0
SYMATTR InstName R3
SYMATTR Value 100k
SYMBOL res -224 208 R0
SYMATTR InstName R17
SYMATTR Value 1000k
SYMBOL Misc\\triodeh -384 192 R0
SYMATTR InstName U4
SYMATTR Value 12ax7
SYMBOL res -816 208 R0
SYMATTR InstName R19
SYMATTR Value 1000k
SYMBOL res -112 96 R90
WINDOW 0 0 56 VBottom 2
WINDOW 3 32 56 VTop 2
SYMATTR InstName R18
SYMATTR Value 100k
SYMBOL res -64 272 R180
WINDOW 0 36 76 Left 2
WINDOW 3 36 40 Left 2
SYMATTR InstName R20
SYMATTR Value 22k
SYMBOL cap 768 256 R0
SYMATTR InstName C4
SYMATTR Value 22µ
SYMBOL res -720 192 R180
WINDOW 0 36 76 Left 2
WINDOW 3 36 40 Left 2
SYMATTR InstName R6
SYMATTR Value 220k
SYMBOL res -672 352 R180
WINDOW 0 36 76 Left 2
WINDOW 3 36 40 Left 2
SYMATTR InstName R8
SYMATTR Value 220k
SYMBOL res 448 48 R90
WINDOW 0 0 56 VBottom 2
WINDOW 3 32 56 VTop 2
SYMATTR InstName R9
SYMATTR Value 220k
SYMBOL res 624 192 R180
WINDOW 0 36 76 Left 2
WINDOW 3 36 40 Left 2
SYMATTR InstName R10
SYMATTR Value 22k
TEXT -704 656 Left 2 !.inc EL84.inc
TEXT -704 696 Left 2 !.tran 10 startup uic
TEXT -704 728 Left 2 !.four 1kHz 9 v(Out)
TEXT -264 -160 Left 5 ;EL84 SE
TEXT -704 616 Left 2 !.inc triode.inc
